*Heading
Cube rounding
**
** This input file is for the simulation of the rounding of a cube
**    as the surface tension of the exterior surface is increased.
**    It is intended as a simple test of the UEL subroutine, 
**    uel_surften_3D_tet.for.
**
** UNITS:  Length - micron, Force - picoNewtons,
**	   Stress - picoNewton/micron^2 = Pa, 
**	   Surface Tension = picoNewton/micron = microNewton/m
**
** David L. Henann, May 2016
**
************************************************************************
**			PARAMETERS
************************************************************************
**
*Parameter
**
** Initial side length of the cube (micron)
L0 = 1.
**
** Material properties
** Shear modulus (Pa)
G0 = 100.0
**
** Bulk modulus (Pa)
Kbulk = 100.0*G0
**
** Final elasto-capillary number (dimensionless)
EC = 1.0
**
** Final surface tension (microN/m)
gamma = EC*G0*L0
**
************************************************************************
**			MODEL DEFINITION
************************************************************************
**
** Nodes
**
*Node, nset=nAll
      1,          0.5,          0.5,          0.5
      2,          0.5,           0.,          0.5
      3,          0.5,           0.,           0.
      4,          0.5,          0.5,           0.
      5,           0.,           0.,          0.5
      6,           0.,           0.,           0.
      7,           0.,          0.5,           0.
      8,           0.,          0.5,          0.5
      9,          0.5,  0.461538464,          0.5
     10,          0.5,  0.423076928,          0.5
     11,          0.5,  0.384615391,          0.5
     12,          0.5,  0.346153855,          0.5
     13,          0.5,  0.307692319,          0.5
     14,          0.5,  0.269230783,          0.5
     15,          0.5,  0.230769232,          0.5
     16,          0.5,  0.192307696,          0.5
     17,          0.5,   0.15384616,          0.5
     18,          0.5,  0.115384616,          0.5
     19,          0.5, 0.0769230798,          0.5
     20,          0.5, 0.0384615399,          0.5
** ... 19728 like lines cut
**
** Elements
**
*User Element,Nodes=10,Type=U1,Iproperties=1,Properties=5,Coordinates=3,Variables=36,Unsymm
1,2,3
*element,type=U1,elset=elall
    1,  1017,  1018,  1019,  1020,  2742,  2741,  2740,  2744,  2743,  2745
    2,  1017,  1021,  1022,  1023,  2748,  2747,  2746,  2750,  2749,  2751
    3,   340,  1024,  1025,  1026,  2754,  2753,  2752,  2756,  2755,  2757
    4,  1024,  1025,  1026,  1027,  2753,  2757,  2755,  2759,  2758,  2760
    5,  1028,  1020,  1029,  1022,  2763,  2762,  2761,  2765,  2764,  2766
    6,  1020,  1029,  1022,  1017,  2762,  2766,  2764,  2744,  2767,  2746
    7,  1030,  1031,  1032,  1033,  2770,  2769,  2768,  2772,  2771,  2773
    8,  1034,  1035,  1036,  1037,  2776,  2775,  2774,  2778,  2777,  2779
    9,  1030,  1038,  1033,  1032,  2781,  2780,  2772,  2768,  2782,  2773
   10,  1039,  1040,  1041,  1042,  2785,  2784,  2783,  2787,  2786,  2788
   11,  1043,  1038,  1044,  1045,  2791,  2790,  2789,  2793,  2792,  2794
   12,  1046,  1038,  1045,  1047,  2796,  2792,  2795,  2798,  2797,  2799
   13,   345,   333,  1048,  1049,  2802,  2801,  2800,  2804,  2803,  2805
   14,  1030,  1050,  1051,  1052,  2808,  2807,  2806,  2810,  2809,  2811
   15,  1045,  1053,  1030,  1050,  2814,  2813,  2812,  2816,  2815,  2808
   16,  1050,  1033,  1054,  1052,  2819,  2818,  2817,  2809,  2820,  2821
   17,  1050,  1054,  1033,  1045,  2817,  2818,  2819,  2816,  2822,  2823
   18,  1055,  1056,  1037,  1057,  2826,  2825,  2824,  2828,  2827,  2829
   19,  1055,  1058,  1037,  1059,  2831,  2830,  2824,  2833,  2832,  2834
   20,  1055,  1060,  1056,  1061,  2836,  2835,  2826,  2838,  2837,  2839
** ... 13237 like lines cut
**
** Dummy elements (for visualization)
**
*ELEMENT,TYPE=C3D10,ELSET=ElDummy
20001,1017,1018,1019,1020,2742,2741,2740,2744,2743,2745
20002,1017,1021,1022,1023,2748,2747,2746,2750,2749,2751
20003,340,1024,1025,1026,2754,2753,2752,2756,2755,2757
20004,1024,1025,1026,1027,2753,2757,2755,2759,2758,2760
20005,1028,1020,1029,1022,2763,2762,2761,2765,2764,2766
20006,1020,1029,1022,1017,2762,2766,2764,2744,2767,2746
20007,1030,1031,1032,1033,2770,2769,2768,2772,2771,2773
20008,1034,1035,1036,1037,2776,2775,2774,2778,2777,2779
20009,1030,1038,1033,1032,2781,2780,2772,2768,2782,2773
20010,1039,1040,1041,1042,2785,2784,2783,2787,2786,2788
20011,1043,1038,1044,1045,2791,2790,2789,2793,2792,2794
20012,1046,1038,1045,1047,2796,2792,2795,2798,2797,2799
20013,345,333,1048,1049,2802,2801,2800,2804,2803,2805
20014,1030,1050,1051,1052,2808,2807,2806,2810,2809,2811
20015,1045,1053,1030,1050,2814,2813,2812,2816,2815,2808
20016,1050,1033,1054,1052,2819,2818,2817,2809,2820,2821
20017,1050,1054,1033,1045,2817,2818,2819,2816,2822,2823
20018,1055,1056,1037,1057,2826,2825,2824,2828,2827,2829
20019,1055,1058,1037,1059,2831,2830,2824,2833,2832,2834
20020,1055,1060,1056,1061,2836,2835,2826,2838,2837,2839
** ... 13237 like lines cut
**
** Node sets
**
*Nset, nset=xsymm
     5,     6,     7,     8,    69,    70,    71,    72,    73,    74,    75,    76,    77,    78,    79,    80
    93,    94,    95,    96,    97,    98,    99,   100,   101,   102,   103,   104,   129,   130,   131,   132
   133,   134,   135,   136,   137,   138,   139,   140,   141,   142,   143,   144,   145,   146,   147,   148
   149,   150,   151,   152,   873,   874,   875,   876,   877,   878,   879,   880,   881,   882,   883,   884
   885,   886,   887,   888,   889,   890,   891,   892,   893,   894,   895,   896,   897,   898,   899,   900
   901,   902,   903,   904,   905,   906,   907,   908,   909,   910,   911,   912,   913,   914,   915,   916
   917,   918,   919,   920,   921,   922,   923,   924,   925,   926,   927,   928,   929,   930,   931,   932
   933,   934,   935,   936,   937,   938,   939,   940,   941,   942,   943,   944,   945,   946,   947,   948
   949,   950,   951,   952,   953,   954,   955,   956,   957,   958,   959,   960,   961,   962,   963,   964
   965,   966,   967,   968,   969,   970,   971,   972,   973,   974,   975,   976,   977,   978,   979,   980
   981,   982,   983,   984,   985,   986,   987,   988,   989,   990,   991,   992,   993,   994,   995,   996
   997,   998,   999,  1000,  1001,  1002,  1003,  1004,  1005,  1006,  1007,  1008,  1009,  1010,  1011,  1012
  1013,  1014,  1015,  1016,  3156,  3363,  3365,  3367,  3473,  3475,  3477,  3708,  3710,  3712,  3821,  3823
  3825,  4543,  4545,  4547,  4783,  4785,  4787,  4827,  4829,  4831,  4982,  4984,  4986,  5068,  5896,  5897
  5989,  6031,  6100,  6102,  6104,  6278,  6279,  6341,  6343,  6345,  6389,  6451,  6453,  6455,  6613,  6616
  6943,  6945,  6947,  6952,  6954,  6956,  6958,  6960,  6962,  7092,  7136,  7269,  7271,  7273,  7275,  7277
  7279,  7416,  7418,  7469,  7522,  7524,  7526,  7696,  7795,  7797,  8384,  8650,  8791,  8793,  8795,  8895
  8992,  8993,  9000,  9070,  9374,  9375,  9376, 10271, 10273, 10275, 10369, 10377, 10378, 10601, 10603, 10605
 10743, 10744, 10745, 10798, 10806, 10817, 10979, 10981, 11054, 11059, 11155, 11167, 11169, 11171, 11292, 11293
 11314, 11359, 11436, 11440, 11641, 11663, 11664, 11669, 11671, 11672, 11675, 11677, 11681, 11682, 11718, 11728
** ... 26 like lines cut
*Nset, nset=ysymm
     2,     3,     5,     6,    21,    22,    23,    24,    25,    26,    27,    28,    29,    30,    31,    32
    57,    58,    59,    60,    61,    62,    63,    64,    65,    66,    67,    68,    69,    70,    71,    72
    73,    74,    75,    76,    77,    78,    79,    80,    81,    82,    83,    84,    85,    86,    87,    88
    89,    90,    91,    92,   297,   298,   299,   300,   301,   302,   303,   304,   305,   306,   307,   308
   309,   310,   311,   312,   313,   314,   315,   316,   317,   318,   319,   320,   321,   322,   323,   324
   325,   326,   327,   328,   329,   330,   331,   332,   333,   334,   335,   336,   337,   338,   339,   340
   341,   342,   343,   344,   345,   346,   347,   348,   349,   350,   351,   352,   353,   354,   355,   356
   357,   358,   359,   360,   361,   362,   363,   364,   365,   366,   367,   368,   369,   370,   371,   372
   373,   374,   375,   376,   377,   378,   379,   380,   381,   382,   383,   384,   385,   386,   387,   388
   389,   390,   391,   392,   393,   394,   395,   396,   397,   398,   399,   400,   401,   402,   403,   404
   405,   406,   407,   408,   409,   410,   411,   412,   413,   414,   415,   416,   417,   418,   419,   420
   421,   422,   423,   424,   425,   426,   427,   428,   429,   430,   431,   432,   433,   434,   435,   436
   437,   438,   439,   440,  2802,  2841,  2843,  2845,  2980,  2982,  2984,  3083,  3085,  3087,  3168,  3442
  3477,  3579,  3582,  3583,  3905,  3907,  3909,  3968,  3970,  3972,  4029,  4031,  4032,  4097,  4099,  4101
  4127,  4129,  4131,  4169,  4316,  4318,  4320,  4714,  4716,  4718,  4777,  4779,  4781,  5024,  5179,  5180
  5181,  5546,  5576,  5691,  5706,  5708,  5710,  5754,  5792,  6172,  6174,  6176,  6274,  6276,  6459,  6460
  6730,  6732,  6733,  6779,  6802,  6804,  6806,  6971,  7065,  7067,  7069,  7092,  7094,  7096,  7258,  7263
  7265,  7267,  7280,  7282,  7298,  7300,  7302,  7303,  7305,  7360,  7361,  7363,  7390,  7403,  7405,  7407
  7420,  7422,  7424,  7792,  7794,  7828,  7844,  7846,  7848,  8010,  8011,  8013,  8025,  8026,  8261,  8278
  8280,  8282,  8302,  8304,  8306,  8476,  8477,  8574,  8576,  8578,  8610,  8662,  8665,  8667,  8669,  8670
** ... 26 like lines cut
*Nset, nset=zsymm
     3,     4,     6,     7,    33,    34,    35,    36,    37,    38,    39,    40,    41,    42,    43,    44
    81,    82,    83,    84,    85,    86,    87,    88,    89,    90,    91,    92,    93,    94,    95,    96
    97,    98,    99,   100,   101,   102,   103,   104,   105,   106,   107,   108,   109,   110,   111,   112
   113,   114,   115,   116,   441,   442,   443,   444,   445,   446,   447,   448,   449,   450,   451,   452
   453,   454,   455,   456,   457,   458,   459,   460,   461,   462,   463,   464,   465,   466,   467,   468
   469,   470,   471,   472,   473,   474,   475,   476,   477,   478,   479,   480,   481,   482,   483,   484
   485,   486,   487,   488,   489,   490,   491,   492,   493,   494,   495,   496,   497,   498,   499,   500
   501,   502,   503,   504,   505,   506,   507,   508,   509,   510,   511,   512,   513,   514,   515,   516
   517,   518,   519,   520,   521,   522,   523,   524,   525,   526,   527,   528,   529,   530,   531,   532
   533,   534,   535,   536,   537,   538,   539,   540,   541,   542,   543,   544,   545,   546,   547,   548
   549,   550,   551,   552,   553,   554,   555,   556,   557,   558,   559,   560,   561,   562,   563,   564
   565,   566,   567,   568,   569,   570,   571,   572,   573,   574,   575,   576,   577,   578,   579,   580
   581,   582,   583,   584,  2980,  3053,  3055,  3057,  4077,  4079,  4081,  4272,  4303,  4777,  5241,  5243
  5245,  5274,  5276,  5278,  6089,  6091,  6093,  6251,  6252,  6254,  6395,  6396,  6398,  6712,  6714,  6716
  6937,  6939,  6941,  7140,  7142,  7144,  7146,  7148,  7150,  7153,  7155,  7157,  7225,  7227,  7229,  7231
  7233,  7235,  7241,  7722,  7748,  8591,  8593,  8595,  8772,  8774,  8776,  9027,  9029,  9031,  9157,  9159
  9161,  9208,  9210,  9211,  9314,  9316,  9318,  9366,  9368,  9370,  9378,  9380,  9382,  9389,  9390,  9392
  9395,  9452,  9454,  9456,  9606,  9609,  9655,  9657,  9659,  9665,  9666,  9668,  9670,  9672,  9687,  9723
  9725,  9727,  9746,  9772,  9779,  9785,  9787,  9789,  9841,  9843,  9845,  9956,  9958,  9960,  9979, 10002
 10004, 10006, 10071, 10073, 10075, 10106, 10108, 10172, 10174, 10176, 10184, 10199, 10205, 10207, 10209, 10315
** ... 26 like lines cut
**
** Element sets
**
*Elset, elset=exterior_S3
    37,    68,   119,   131,   145,   178,   214,   427,   428,   434,   460,   522,   614,   628,   633,   672
   673,   681,   776,   873,  1072,  1092,  1265,  1269,  1385,  1401,  1600,  1605,  1608,  1612,  1628,  1635
  1640,  1641,  1654,  1658,  1660,  1661,  1663,  1688,  1726,  1727,  1730,  1732,  1735,  1738,  1749,  1761
  1762,  1767,  1781,  1792,  1796,  1802,  1804,  1807,  1808,  1810,  1812,  1823,  1837,  1838,  1840,  1850
  1852,  1856,  1859,  1873,  1880,  1885,  1886,  1888,  1911,  1917,  1918,  1928,  1929,  1941,  1952,  1961
  1964,  1968,  1969,  1971,  1973,  1976,  1981,  1985,  2004,  2005,  2017,  2018,  2021,  2024,  2028,  2030
  2034,  2035,  2039,  2045,  2046,  2047,  2049,  2053,  2059,  2072,  2076,  2078,  2079,  2081,  2082,  2087
  2094,  2096,  2105,  2106,  2116,  2118,  2119,  2125,  2133,  2143,  2153,  2160,  2161,  2167,  2171,  2175
  2177,  2179,  2184,  2193,  2195,  2203,  2204,  2205,  2207,  2209,  2213,  2223,  2224,  2229,  2232,  2237
  2243,  2251,  2254,  2255,  2256,  2281,  2294,  2299,  2312,  2319,  2324,  2328,  2330,  2331,  2334,  2337
  2338,  2341,  2343,  2344,  2352,  2355,  2362,  2373,  2383,  2397,  2398,  2406,  2407,  2410,  2412,  2414
  2417,  2428,  2434,  2437,  2443,  2450,  2452,  2472,  2480,  2492,  2496,  2505,  2518,  2529,  2535,  2541
  2557,  2560,  2561,  2562,  2565,  2570,  2581,  2583,  2599,  2615,  2625,  2626,  2645,  2649,  2650,  2655
  2656,  2684,  2695,  2704,  2705,  2706,  2720,  2728,  2730,  2734,  2745,  2780,  2790,  2799,  2802,  2828
  2841,  2844,  2845,  2847,  2849,  2853,  2854,  2858,  2873,  2881,  2899,  2919,  2940,  2957,  2971,  2974
  2989,  2994,  3003,  3006,  3010,  3012,  3026,  3032,  3035,  3064,  3096,  3134,  3150,  3160,  3170,  3200
  3202,  3206,  3223,  3231,  3238,  3244,  3245,  3268,  3269,  3279,  3343,  3361,  3363,  3367,  3403,  3409
  3429,  3433,  3500,  3512,  3538,  3546,  3564,  3566,  3580,  3711,  3771,  3837,  3855,  3913,  3917,  3918
  3995,  4000,  4001,  4002,  4004,  4074,  4081,  4082,  4084,  4090,  4098,  4149,  4161,  4164,  4169,  4170
  4171,  4173,  4233,  4244,  4246,  4252,  4254,  4255,  4277,  4316,  4336,  4340,  4385,  4393,  4397,  4403
** ... 42 like lines cut
*Elset, elset=exterior_S4
 1624, 3193, 4982, 5362, 5388, 5395, 6099, 6209, 6221, 6226, 6558, 6592, 6666, 6674, 8049
*Elset, elset=exterior_S2
  1766,  3139,  3327,  3341,  3422,  3442,  4045,  5207,  5286,  5705,  5967,  6199,  6227,  6285,  6591,  7291
  7526, 12574
*Elset, elset=exterior_S1
 2309, 7891, 8564
**
************************************************************************
**			AMPLITUDE
************************************************************************
*Amplitude, name=Amp-1
0.0,0.0,1.0,1.0
**
************************************************************************
**			MATERIAL DEFINITION
************************************************************************
**
** Material properties for the real material
**
*uel property,elset=elall
*******************************************************************
**G0	Kbulk	Im	Gnoneq	eta	matflag
<G0>,	<Kbulk>,  0.0,	0.0,	1.0,	1
**
*******************************************************************
**
** Dummy mesh material properties
**
*Solid section, elset=ElDummy, material=Material-1
**
*Material, name=Material-1
** The dummy mesh stiffness is very small
*Elastic
1.e-20
************************************************************************
**			STEP DEFINITION
************************************************************************
*Step, name=ST, nlgeom=YES, unsymm=yes, inc=50000
*Static
0.01, 1.0, 1e-05, 0.1
*CONTROLS, PARAMETERS=LINE SEARCH
10,1.0,0.0001,0.25,0.10
*CONTROLS, PARAMETERS=TIME INCREMENTATION
,,,,,,,10,,,,,,
** 
*boundary
xsymm,1,1
ysymm,2,2
zsymm,3,3
*Dload, amplitude=Amp-1
exterior_S1,U1,<gamma>
exterior_S2,U2,<gamma>
exterior_S3,U3,<gamma>
exterior_S4,U4,<gamma>
** 
*Output, field, time interval=0.1
*node output
u
*element output, elset=ElDummy
le
**
*End Step
************************************************************************