*Heading
Cube rounding
**
** This input file is for the simulation of the rounding of a cube
**    as the surface tension of the exterior surface is increased.
**    It is intended as a simple test of the UEL subroutine, 
**    uel_surften_3D_hex.for.
**
** UNITS:  Length - micron, Force - picoNewtons,
**	   Stress - picoNewton/micron^2 = Pa, 
**	   Surface Tension = picoNewton/micron = microNewton/m
**
** David L. Henann, May 2016
**
************************************************************************
**			PARAMETERS
************************************************************************
**
*Parameter
**
** Initial side length of the cube (micron)
L0 = 1.
**
** Material properties
** Shear modulus (Pa)
G0 = 100.0
**
** Bulk modulus (Pa)
Kbulk = 100.0*G0
**
** Final elasto-capillary number (dimensionless)
EC = 1.0
**
** Final surface tension (microN/m)
gamma = EC*G0*L0
**
************************************************************************
**			MODEL DEFINITION
************************************************************************
**
** Nodes
**
*Node, nset=nAll
      1,          0.5,          0.5,          0.5
      2,          0.5,  0.479999989,          0.5
      3,          0.5,  0.460000008,          0.5
      4,          0.5,  0.439999998,          0.5
      5,          0.5,  0.419999987,          0.5
      6,          0.5,  0.400000006,          0.5
      7,          0.5,  0.379999995,          0.5
      8,          0.5,  0.360000014,          0.5
      9,          0.5,  0.340000004,          0.5
     10,          0.5,  0.319999993,          0.5
     11,          0.5,  0.300000012,          0.5
     12,          0.5,  0.280000001,          0.5
     13,          0.5,   0.25999999,          0.5
     14,          0.5,  0.239999995,          0.5
     15,          0.5,  0.219999999,          0.5
     16,          0.5,  0.200000003,          0.5
     17,          0.5,  0.180000007,          0.5
     18,          0.5,  0.159999996,          0.5
     19,          0.5,  0.140000001,          0.5
     20,          0.5,  0.119999997,          0.5
** ... 17556 like lines cut
**
** Elements
**
*User Element,Nodes=8,Type=U1,Iproperties=1,Properties=5,Coordinates=3,Variables=72,Unsymm
1,2,3
*element,type=U1,elset=elall
    1,   677,   678,   704,   703,     1,     2,    28,    27
    2,   678,   679,   705,   704,     2,     3,    29,    28
    3,   679,   680,   706,   705,     3,     4,    30,    29
    4,   680,   681,   707,   706,     4,     5,    31,    30
    5,   681,   682,   708,   707,     5,     6,    32,    31
    6,   682,   683,   709,   708,     6,     7,    33,    32
    7,   683,   684,   710,   709,     7,     8,    34,    33
    8,   684,   685,   711,   710,     8,     9,    35,    34
    9,   685,   686,   712,   711,     9,    10,    36,    35
   10,   686,   687,   713,   712,    10,    11,    37,    36
   11,   687,   688,   714,   713,    11,    12,    38,    37
   12,   688,   689,   715,   714,    12,    13,    39,    38
   13,   689,   690,   716,   715,    13,    14,    40,    39
   14,   690,   691,   717,   716,    14,    15,    41,    40
   15,   691,   692,   718,   717,    15,    16,    42,    41
   16,   692,   693,   719,   718,    16,    17,    43,    42
   17,   693,   694,   720,   719,    17,    18,    44,    43
   18,   694,   695,   721,   720,    18,    19,    45,    44
   19,   695,   696,   722,   721,    19,    20,    46,    45
   20,   696,   697,   723,   722,    20,    21,    47,    46
** ... 15605 like lines cut
**
** Dummy elements (for visualization)
**
*ELEMENT,TYPE=C3D8,ELSET=ElDummy
20001,677,678,704,703,1,2,28,27
20002,678,679,705,704,2,3,29,28
20003,679,680,706,705,3,4,30,29
20004,680,681,707,706,4,5,31,30
20005,681,682,708,707,5,6,32,31
20006,682,683,709,708,6,7,33,32
20007,683,684,710,709,7,8,34,33
20008,684,685,711,710,8,9,35,34
20009,685,686,712,711,9,10,36,35
20010,686,687,713,712,10,11,37,36
20011,687,688,714,713,11,12,38,37
20012,688,689,715,714,12,13,39,38
20013,689,690,716,715,13,14,40,39
20014,690,691,717,716,14,15,41,40
20015,691,692,718,717,15,16,42,41
20016,692,693,719,718,16,17,43,42
20017,693,694,720,719,17,18,44,43
20018,694,695,721,720,18,19,45,44
20019,695,696,722,721,19,20,46,45
20020,696,697,723,722,20,21,47,46
** ... 15605 like lines cut
**
** Node sets
**
*Nset, nset=xsymm, generate
 16901,  17576,      1
*Nset, nset=ysymm, generate
    26,  17576,     26
*Nset, nset=zsymm
   651,   652,   653,   654,   655,   656,   657,   658,   659,   660,   661,   662,   663,   664,   665,   666
   667,   668,   669,   670,   671,   672,   673,   674,   675,   676,  1327,  1328,  1329,  1330,  1331,  1332
  1333,  1334,  1335,  1336,  1337,  1338,  1339,  1340,  1341,  1342,  1343,  1344,  1345,  1346,  1347,  1348
  1349,  1350,  1351,  1352,  2003,  2004,  2005,  2006,  2007,  2008,  2009,  2010,  2011,  2012,  2013,  2014
  2015,  2016,  2017,  2018,  2019,  2020,  2021,  2022,  2023,  2024,  2025,  2026,  2027,  2028,  2679,  2680
  2681,  2682,  2683,  2684,  2685,  2686,  2687,  2688,  2689,  2690,  2691,  2692,  2693,  2694,  2695,  2696
  2697,  2698,  2699,  2700,  2701,  2702,  2703,  2704,  3355,  3356,  3357,  3358,  3359,  3360,  3361,  3362
  3363,  3364,  3365,  3366,  3367,  3368,  3369,  3370,  3371,  3372,  3373,  3374,  3375,  3376,  3377,  3378
  3379,  3380,  4031,  4032,  4033,  4034,  4035,  4036,  4037,  4038,  4039,  4040,  4041,  4042,  4043,  4044
  4045,  4046,  4047,  4048,  4049,  4050,  4051,  4052,  4053,  4054,  4055,  4056,  4707,  4708,  4709,  4710
  4711,  4712,  4713,  4714,  4715,  4716,  4717,  4718,  4719,  4720,  4721,  4722,  4723,  4724,  4725,  4726
  4727,  4728,  4729,  4730,  4731,  4732,  5383,  5384,  5385,  5386,  5387,  5388,  5389,  5390,  5391,  5392
  5393,  5394,  5395,  5396,  5397,  5398,  5399,  5400,  5401,  5402,  5403,  5404,  5405,  5406,  5407,  5408
  6059,  6060,  6061,  6062,  6063,  6064,  6065,  6066,  6067,  6068,  6069,  6070,  6071,  6072,  6073,  6074
  6075,  6076,  6077,  6078,  6079,  6080,  6081,  6082,  6083,  6084,  6735,  6736,  6737,  6738,  6739,  6740
  6741,  6742,  6743,  6744,  6745,  6746,  6747,  6748,  6749,  6750,  6751,  6752,  6753,  6754,  6755,  6756
  6757,  6758,  6759,  6760,  7411,  7412,  7413,  7414,  7415,  7416,  7417,  7418,  7419,  7420,  7421,  7422
  7423,  7424,  7425,  7426,  7427,  7428,  7429,  7430,  7431,  7432,  7433,  7434,  7435,  7436,  8087,  8088
  8089,  8090,  8091,  8092,  8093,  8094,  8095,  8096,  8097,  8098,  8099,  8100,  8101,  8102,  8103,  8104
  8105,  8106,  8107,  8108,  8109,  8110,  8111,  8112,  8763,  8764,  8765,  8766,  8767,  8768,  8769,  8770
** ... 23 like lines cut
**
** Element sets
**
*Elset, elset=exterior_S6, generate
     1,  15601,     25
*Elset, elset=exterior_S2, generate
   1,  625,    1
*Elset, elset=exterior_S3
     1,     2,     3,     4,     5,     6,     7,     8,     9,    10,    11,    12,    13,    14,    15,    16
    17,    18,    19,    20,    21,    22,    23,    24,    25,   626,   627,   628,   629,   630,   631,   632
   633,   634,   635,   636,   637,   638,   639,   640,   641,   642,   643,   644,   645,   646,   647,   648
   649,   650,  1251,  1252,  1253,  1254,  1255,  1256,  1257,  1258,  1259,  1260,  1261,  1262,  1263,  1264
  1265,  1266,  1267,  1268,  1269,  1270,  1271,  1272,  1273,  1274,  1275,  1876,  1877,  1878,  1879,  1880
  1881,  1882,  1883,  1884,  1885,  1886,  1887,  1888,  1889,  1890,  1891,  1892,  1893,  1894,  1895,  1896
  1897,  1898,  1899,  1900,  2501,  2502,  2503,  2504,  2505,  2506,  2507,  2508,  2509,  2510,  2511,  2512
  2513,  2514,  2515,  2516,  2517,  2518,  2519,  2520,  2521,  2522,  2523,  2524,  2525,  3126,  3127,  3128
  3129,  3130,  3131,  3132,  3133,  3134,  3135,  3136,  3137,  3138,  3139,  3140,  3141,  3142,  3143,  3144
  3145,  3146,  3147,  3148,  3149,  3150,  3751,  3752,  3753,  3754,  3755,  3756,  3757,  3758,  3759,  3760
  3761,  3762,  3763,  3764,  3765,  3766,  3767,  3768,  3769,  3770,  3771,  3772,  3773,  3774,  3775,  4376
  4377,  4378,  4379,  4380,  4381,  4382,  4383,  4384,  4385,  4386,  4387,  4388,  4389,  4390,  4391,  4392
  4393,  4394,  4395,  4396,  4397,  4398,  4399,  4400,  5001,  5002,  5003,  5004,  5005,  5006,  5007,  5008
  5009,  5010,  5011,  5012,  5013,  5014,  5015,  5016,  5017,  5018,  5019,  5020,  5021,  5022,  5023,  5024
  5025,  5626,  5627,  5628,  5629,  5630,  5631,  5632,  5633,  5634,  5635,  5636,  5637,  5638,  5639,  5640
  5641,  5642,  5643,  5644,  5645,  5646,  5647,  5648,  5649,  5650,  6251,  6252,  6253,  6254,  6255,  6256
  6257,  6258,  6259,  6260,  6261,  6262,  6263,  6264,  6265,  6266,  6267,  6268,  6269,  6270,  6271,  6272
  6273,  6274,  6275,  6876,  6877,  6878,  6879,  6880,  6881,  6882,  6883,  6884,  6885,  6886,  6887,  6888
  6889,  6890,  6891,  6892,  6893,  6894,  6895,  6896,  6897,  6898,  6899,  6900,  7501,  7502,  7503,  7504
  7505,  7506,  7507,  7508,  7509,  7510,  7511,  7512,  7513,  7514,  7515,  7516,  7517,  7518,  7519,  7520
** ... 20 like lines cut
**
************************************************************************
**			AMPLITUDE
************************************************************************
*Amplitude, name=Amp-1
0.0,0.0,1.0,1.0
**
************************************************************************
**			MATERIAL DEFINITION
************************************************************************
**
** Material properties for the real material
**
*uel property,elset=elall
*******************************************************************
**G0	Kbulk	Im	Gnoneq	eta	matflag
<G0>,	<Kbulk>,  0.0,	0.0,	1.0,	1
**
*******************************************************************
**
** Dummy mesh material properties
**
*Solid section, elset=ElDummy, material=Material-1
**
*Material, name=Material-1
** The dummy mesh stiffness is very small
*Elastic
1.e-20
************************************************************************
**			STEP DEFINITION
************************************************************************
*Step, name=ST, nlgeom=YES, unsymm=yes, inc=50000
*Static
0.01, 1.0, 1e-05, 0.1
*CONTROLS, PARAMETERS=LINE SEARCH
10,1.0,0.0001,0.25,0.10
*CONTROLS, PARAMETERS=TIME INCREMENTATION
,,,,,,,10,,,,,,
** 
*boundary
xsymm,1,1
ysymm,2,2
zsymm,3,3
*Dload, amplitude=Amp-1
exterior_S2,U2,<gamma>
exterior_S3,U3,<gamma>
exterior_S6,U6,<gamma>
** 
*Output, field, time interval=0.1
*node output
u
*element output, elset=ElDummy
le
**
*End Step
************************************************************************